@<TRIPOS>MOLECULE
MEA
   12    11     1     0     0
SMALL
abcg2


@<TRIPOS>ATOM
      1 C1           0.0000     0.0000     0.0000 c3         1 MEA       0.064600
      2 C2           1.5200     0.0000     0.0000 c3         1 MEA       0.132600
      3 O            2.9500     0.0000     0.0000 oh         1 MEA      -0.696000
      4 N           -0.6500     1.2500     0.0000 nz         1 MEA      -0.971000
      5 H1          -0.5500    -0.5400     0.9000 hx         1 MEA       0.119700
      6 H2          -0.5500    -0.5400    -0.9000 hx         1 MEA       0.119700
      7 H3           1.5200     0.5400     0.9000 h1         1 MEA       0.080200
      8 H4           1.5200     0.5400    -0.9000 h1         1 MEA       0.080200
      9 HO           3.3500     0.8000     0.0000 ho         1 MEA       0.500000
     10 HN1         -1.5500     1.2500     0.0000 hn         1 MEA       0.523667
     11 HN2         -0.2500     2.0500     0.6500 hn         1 MEA       0.523667
     12 HN3         -0.2500     2.0500    -0.6500 hn         1 MEA       0.523667
@<TRIPOS>BOND
     1     1     2 1   
     2     1     4 1   
     3     1     5 1   
     4     1     6 1   
     5     2     3 1   
     6     2     7 1   
     7     2     8 1   
     8     3     9 1   
     9     4    10 1   
    10     4    11 1   
    11     4    12 1   
@<TRIPOS>SUBSTRUCTURE
     1 MEA         1 TEMP              0 ****  ****    0 ROOT
